* NGSPICE file created from wowa_analog_parax.ext - technology: sky130A

.subckt wowa_analog_parax b0 b1 b2 b3 b4 b5 b6 b7 EXTTHRESH USEEXT DACOUT INPUT VCC
+ CAL VSS COMPOUT EN_N
X0 a_6766_30798# a_7366_26366# VSS.t4 sky130_fd_pr__res_high_po_0p35 l=20.16
X1 x1.x1.pg2g.t1 x1.x1.pg2g.t0 x1.x1.mirhigh.t1 VCC.t17 sky130_fd_pr__pfet_01v8_lvt ad=1.16 pd=8.58 as=1.16 ps=8.58 w=4 l=4
X2 x1.x2.OUT.t1 x1.x2.x2.GP COMPOUT.t2 VCC.t5 sky130_fd_pr__pfet_01v8 ad=0.58 pd=4.58 as=0.58 ps=4.58 w=2 l=0.2
X3 a_5366_34798# VSS VSS.t32 sky130_fd_pr__res_high_po_0p35 l=40.16
X4 x1.x2.OUT.t0 CAL.t0 COMPOUT.t1 VSS.t5 sky130_fd_pr__nfet_01v8 ad=0.58 pd=4.58 as=0.58 ps=4.58 w=2 l=0.2
X5 x1.x3.SEL_N.t1 CAL.t1 VSS.t36 VSS.t35 sky130_fd_pr__nfet_01v8_lvt ad=0.29 pd=2.58 as=0.29 ps=2.58 w=1 l=0.15
X6 VCC.t19 EN_N.t0 x1.x1.mirhigh.t2 VCC.t18 sky130_fd_pr__pfet_01v8 ad=1.45 pd=10.58 as=1.45 ps=10.58 w=5 l=0.15
X7 x1.x1.G2 x1.x1.G2 VSS.t3 VSS.t2 sky130_fd_pr__nfet_01v8_lvt ad=0.58 pd=4.58 as=0.58 ps=4.58 w=2 l=4
X8 a_9166_30798# a_8566_26366# VSS.t6 sky130_fd_pr__res_high_po_0p35 l=20.16
X9 x3.SEL_N.t0 USEEXT.t0 VCC.t10 VCC.t9 sky130_fd_pr__pfet_01v8_lvt ad=0.58 pd=4.58 as=0.58 ps=4.58 w=2 l=0.35
X10 b2 a_6766_30798# VSS.t4 sky130_fd_pr__res_high_po_0p35 l=40.16
X11 VSS.t31 x1.x1.G1 x1.x1.G1 VSS.t30 sky130_fd_pr__nfet_01v8_lvt ad=0.58 pd=4.58 as=0.58 ps=4.58 w=2 l=4
X12 x1.x2.OUT.t2 VSS.t13 sky130_fd_pr__cap_mim_m3_1 l=10 w=10
X13 a_5366_34798# a_6166_26366# VSS.t16 sky130_fd_pr__res_high_po_0p35 l=20.16
X14 x3.OUT.t5 x1.x3.SEL_N.t2 x1.x3.OUT.t2 VCC.t14 sky130_fd_pr__pfet_01v8 ad=0.58 pd=4.58 as=0.58 ps=4.58 w=2 l=0.2
X15 x1.x1.n2n VCC.t22 VSS.t26 VSS.t25 sky130_fd_pr__nfet_01v8_lvt ad=0.145 pd=1.58 as=0.145 ps=1.58 w=0.5 l=8
X16 x1.x1.G2 x1.x3.OUT.t4 x1.x1.inhigh.t1 VCC.t15 sky130_fd_pr__pfet_01v8_lvt ad=2.32 pd=16.58 as=2.32 ps=16.58 w=8 l=2
X17 b5 a_8566_26366# VSS.t6 sky130_fd_pr__res_high_po_0p35 l=40.16
X18 b7 DACOUT VSS.t38 sky130_fd_pr__res_high_po_0p35 l=40.16
X19 VCC.t12 EN_N.t1 x1.x1.p2p VCC.t11 sky130_fd_pr__pfet_01v8 ad=0.29 pd=2.58 as=0.29 ps=2.58 w=1 l=8
X20 VSS.t23 EN_N.t2 COMPOUT.t3 VSS.t22 sky130_fd_pr__nfet_01v8 ad=0.29 pd=2.58 as=0.29 ps=2.58 w=1 l=0.15
X21 x3.OUT.t2 x3.SEL_N.t2 EXTTHRESH.t0 VCC.t4 sky130_fd_pr__pfet_01v8 ad=0.58 pd=4.58 as=0.58 ps=4.58 w=2 l=0.2
X22 x1.x2.x2.Z VSS.t15 sky130_fd_pr__cap_mim_m3_1 l=10 w=10
X23 b0 a_5366_34798# VSS.t16 sky130_fd_pr__res_high_po_0p35 l=40.16
X24 x1.x1.inhigh.t0 x3.OUT.t6 x1.x1.G1 VCC.t21 sky130_fd_pr__pfet_01v8_lvt ad=2.32 pd=16.58 as=2.32 ps=16.58 w=8 l=2
X25 VCC.t8 CAL.t2 x1.x2.x2.GP VCC.t7 sky130_fd_pr__pfet_01v8_lvt ad=0.58 pd=4.58 as=0.58 ps=4.58 w=2 l=0.35
X26 a_7966_30798# a_7366_26366# VSS.t11 sky130_fd_pr__res_high_po_0p35 l=20.16
X27 x1.x2.x2.Z VSS.t14 sky130_fd_pr__cap_mim_m3_1 l=10 w=10
X28 x3.OUT.t4 USEEXT.t1 EXTTHRESH.t1 VSS.t27 sky130_fd_pr__nfet_01v8 ad=0.58 pd=4.58 as=0.58 ps=4.58 w=2 l=0.2
X29 x1.x2.x2.GP CAL.t3 VSS.t19 VSS.t18 sky130_fd_pr__nfet_01v8_lvt ad=0.29 pd=2.58 as=0.29 ps=2.58 w=1 l=0.15
X30 a_9166_30798# DACOUT VSS.t8 sky130_fd_pr__res_high_po_0p35 l=20.16
X31 b3 a_7366_26366# VSS.t11 sky130_fd_pr__res_high_po_0p35 l=40.16
X32 a_6766_30798# a_6166_26366# VSS.t7 sky130_fd_pr__res_high_po_0p35 l=20.16
X33 x1.x1.mirhigh.t0 x1.x1.pg2g.t2 COMPOUT.t4 VCC.t16 sky130_fd_pr__pfet_01v8_lvt ad=1.16 pd=8.58 as=1.16 ps=8.58 w=4 l=4
X34 x1.x1.pg2g x1.x1.G1 VSS.t29 VSS.t28 sky130_fd_pr__nfet_01v8_lvt ad=0.58 pd=4.58 as=0.58 ps=4.58 w=2 l=4
X35 x3.OUT.t1 x3.SEL_N.t3 DACOUT.t1 VSS.t17 sky130_fd_pr__nfet_01v8 ad=0.58 pd=4.58 as=0.58 ps=4.58 w=2 l=0.2
X36 VCC.t1 CAL.t4 x1.x3.SEL_N.t0 VCC.t0 sky130_fd_pr__pfet_01v8_lvt ad=0.58 pd=4.58 as=0.58 ps=4.58 w=2 l=0.35
X37 b6 a_9166_30798# VSS.t8 sky130_fd_pr__res_high_po_0p35 l=40.16
X38 VSS.t1 x1.x1.G2 COMPOUT.t0 VSS.t0 sky130_fd_pr__nfet_01v8_lvt ad=0.58 pd=4.58 as=0.58 ps=4.58 w=2 l=4
X39 x1.x1.inhigh.t2 EN_N.t3 VCC.t3 VCC.t2 sky130_fd_pr__pfet_01v8 ad=0.58 pd=4.58 as=0.58 ps=4.58 w=2 l=8
X40 x1.x1.G1 x1.x2.OUT.t3 x1.x1.n2n VSS.t37 sky130_fd_pr__nfet_01v8_lvt ad=0.145 pd=1.58 as=0.145 ps=1.58 w=0.5 l=1
X41 x1.x3.OUT.t3 x1.x3.SEL_N.t3 INPUT.t1 VSS.t9 sky130_fd_pr__nfet_01v8 ad=0.58 pd=4.58 as=0.58 ps=4.58 w=2 l=0.2
X42 a_7966_30798# a_8566_26366# VSS.t10 sky130_fd_pr__res_high_po_0p35 l=20.16
X43 VSS.t21 USEEXT.t2 x3.SEL_N.t1 VSS.t20 sky130_fd_pr__nfet_01v8_lvt ad=0.29 pd=2.58 as=0.29 ps=2.58 w=1 l=0.15
X44 b1 a_6166_26366# VSS.t7 sky130_fd_pr__res_high_po_0p35 l=40.16
X45 x1.x2.OUT.t2 VSS.t12 sky130_fd_pr__cap_mim_m3_1 l=10 w=10
X46 x3.OUT.t0 CAL.t5 x1.x3.OUT.t0 VSS.t24 sky130_fd_pr__nfet_01v8 ad=0.58 pd=4.58 as=0.58 ps=4.58 w=2 l=0.2
X47 x3.OUT.t3 USEEXT.t3 DACOUT.t2 VCC.t6 sky130_fd_pr__pfet_01v8 ad=0.58 pd=4.58 as=0.58 ps=4.58 w=2 l=0.2
X48 b4 a_7966_30798# VSS.t10 sky130_fd_pr__res_high_po_0p35 l=40.16
X49 x1.x1.G1 x1.x2.OUT.t4 x1.x1.p2p VCC.t13 sky130_fd_pr__pfet_01v8_lvt ad=0.29 pd=2.58 as=0.29 ps=2.58 w=1 l=1
X50 x1.x3.OUT.t1 CAL.t6 INPUT.t0 VCC.t20 sky130_fd_pr__pfet_01v8 ad=0.58 pd=4.58 as=0.58 ps=4.58 w=2 l=0.2
R0 VSS.n330 VSS.n156 1.1352e+06
R1 VSS.n302 VSS.n301 88402
R2 VSS.n331 VSS.n330 85360
R3 VSS.n301 VSS.n153 57710.7
R4 VSS.n301 VSS.n293 42701
R5 VSS.n290 VSS.n289 38439
R6 VSS.n417 VSS.n90 37991.8
R7 VSS.n290 VSS.n154 30084.4
R8 VSS.n486 VSS.n3 27093.3
R9 VSS.n8 VSS.n4 27093.3
R10 VSS.n8 VSS.n3 27093.3
R11 VSS.n468 VSS.n27 27093.3
R12 VSS.n468 VSS.n467 27093.3
R13 VSS.n467 VSS.n463 27093.3
R14 VSS.n463 VSS.n27 27093.3
R15 VSS.n472 VSS.n21 27093.3
R16 VSS.n472 VSS.n22 27093.3
R17 VSS.n21 VSS.n20 27093.3
R18 VSS.n22 VSS.n20 27093.3
R19 VSS.n453 VSS.n42 27093.3
R20 VSS.n453 VSS.n43 27093.3
R21 VSS.n42 VSS.n41 27093.3
R22 VSS.n43 VSS.n41 27093.3
R23 VSS.n449 VSS.n46 27093.3
R24 VSS.n449 VSS.n47 27093.3
R25 VSS.n448 VSS.n46 27093.3
R26 VSS.n448 VSS.n47 27093.3
R27 VSS.n437 VSS.n57 27093.3
R28 VSS.n437 VSS.n58 27093.3
R29 VSS.n438 VSS.n57 27093.3
R30 VSS.n438 VSS.n58 27093.3
R31 VSS.n432 VSS.n68 27093.3
R32 VSS.n432 VSS.n69 27093.3
R33 VSS.n431 VSS.n68 27093.3
R34 VSS.n431 VSS.n69 27093.3
R35 VSS.n426 VSS.n78 27093.3
R36 VSS.n426 VSS.n79 27093.3
R37 VSS.n427 VSS.n78 27093.3
R38 VSS.n427 VSS.n79 27093.3
R39 VSS.n422 VSS.n88 27093.3
R40 VSS.n422 VSS.n89 27093.3
R41 VSS.n421 VSS.n88 27093.3
R42 VSS.n421 VSS.n89 27093.3
R43 VSS.n331 VSS.n153 23925
R44 VSS.n326 VSS.n325 20589.7
R45 VSS.n325 VSS.n324 19594.2
R46 VSS.n100 VSS.n99 18357.1
R47 VSS.n301 VSS.n155 17328.1
R48 VSS.n30 VSS.n6 15505.1
R49 VSS.n30 VSS.n7 15505.1
R50 VSS.n483 VSS.n6 15505.1
R51 VSS.n483 VSS.n7 15505.1
R52 VSS.n16 VSS.n13 15505.1
R53 VSS.n16 VSS.n14 15505.1
R54 VSS.n473 VSS.n13 15505.1
R55 VSS.n473 VSS.n14 15505.1
R56 VSS.n454 VSS.n34 15505.1
R57 VSS.n454 VSS.n35 15505.1
R58 VSS.n39 VSS.n34 15505.1
R59 VSS.n39 VSS.n35 15505.1
R60 VSS.n370 VSS.n48 15505.1
R61 VSS.n375 VSS.n48 15505.1
R62 VSS.n370 VSS.n51 15505.1
R63 VSS.n375 VSS.n51 15505.1
R64 VSS.n385 VSS.n60 15505.1
R65 VSS.n368 VSS.n60 15505.1
R66 VSS.n385 VSS.n64 15505.1
R67 VSS.n368 VSS.n64 15505.1
R68 VSS.n392 VSS.n71 15505.1
R69 VSS.n366 VSS.n71 15505.1
R70 VSS.n392 VSS.n74 15505.1
R71 VSS.n366 VSS.n74 15505.1
R72 VSS.n362 VSS.n81 15505.1
R73 VSS.n391 VSS.n81 15505.1
R74 VSS.n362 VSS.n84 15505.1
R75 VSS.n391 VSS.n84 15505.1
R76 VSS.n173 VSS.n163 15252.3
R77 VSS.n163 VSS.n155 14240.6
R78 VSS.n352 VSS.n136 13926.5
R79 VSS.n330 VSS.n155 13892
R80 VSS.n407 VSS.n98 13166.6
R81 VSS.n407 VSS.n90 11573.8
R82 VSS.n325 VSS.n162 10139.7
R83 VSS.n407 VSS.n99 9491.27
R84 VSS.n331 VSS.n154 9075
R85 VSS.n329 VSS.n328 8450.84
R86 VSS.n328 VSS.n98 8440.71
R87 VSS.n327 VSS.n326 7196.9
R88 VSS.n145 VSS.n144 6564.74
R89 VSS.n344 VSS.n144 6564.74
R90 VSS.n344 VSS.n342 6564.74
R91 VSS.n342 VSS.n145 6564.74
R92 VSS.n328 VSS.n327 6540.44
R93 VSS.n327 VSS.n162 5785.42
R94 VSS.n303 VSS.n151 5116.21
R95 VSS.n303 VSS.n152 5116.21
R96 VSS.n333 VSS.n152 5116.21
R97 VSS.n333 VSS.n151 5116.21
R98 VSS.n307 VSS.n178 5116.21
R99 VSS.n307 VSS.n179 5116.21
R100 VSS.n308 VSS.n178 5116.21
R101 VSS.n308 VSS.n179 5116.21
R102 VSS.n322 VSS.n166 5116.21
R103 VSS.n174 VSS.n166 5116.21
R104 VSS.n174 VSS.n167 5116.21
R105 VSS.n322 VSS.n167 5116.21
R106 VSS.n203 VSS.n199 5116.21
R107 VSS.n199 VSS.n169 5116.21
R108 VSS.n200 VSS.n169 5116.21
R109 VSS.n203 VSS.n200 5116.21
R110 VSS.n231 VSS.n156 3851.76
R111 VSS.n180 VSS.n162 3531.49
R112 VSS.n229 VSS.n134 2914.44
R113 VSS.n354 VSS.n134 2914.44
R114 VSS.n229 VSS.n135 2914.44
R115 VSS.n354 VSS.n135 2914.44
R116 VSS.n247 VSS.n227 2914.44
R117 VSS.n256 VSS.n227 2914.44
R118 VSS.n247 VSS.n228 2914.44
R119 VSS.n256 VSS.n228 2914.44
R120 VSS.n287 VSS.n182 2914.44
R121 VSS.n287 VSS.n183 2914.44
R122 VSS.n272 VSS.n182 2914.44
R123 VSS.n272 VSS.n183 2914.44
R124 VSS.n116 VSS.n109 2914.44
R125 VSS.n113 VSS.n109 2914.44
R126 VSS.n113 VSS.n110 2914.44
R127 VSS.n116 VSS.n110 2914.44
R128 VSS.n111 VSS.n101 2914.44
R129 VSS.n405 VSS.n101 2914.44
R130 VSS.n405 VSS.n102 2914.44
R131 VSS.n111 VSS.n102 2914.44
R132 VSS.n157 VSS.n137 2508.85
R133 VSS.n350 VSS.n137 2508.85
R134 VSS.n157 VSS.n138 2508.85
R135 VSS.n350 VSS.n138 2508.85
R136 VSS.n326 VSS.n163 2472.45
R137 VSS.n409 VSS.n91 2306.06
R138 VSS.n415 VSS.n91 2306.06
R139 VSS.n409 VSS.n92 2306.06
R140 VSS.n415 VSS.n92 2306.06
R141 VSS.n244 VSS.n232 2306.06
R142 VSS.n253 VSS.n232 2306.06
R143 VSS.n244 VSS.n233 2306.06
R144 VSS.n253 VSS.n233 2306.06
R145 VSS.n277 VSS.n270 2306.06
R146 VSS.n277 VSS.n271 2306.06
R147 VSS.n278 VSS.n270 2306.06
R148 VSS.n278 VSS.n271 2306.06
R149 VSS.n207 VSS.n195 2306.06
R150 VSS.n208 VSS.n195 2306.06
R151 VSS.n208 VSS.n194 2306.06
R152 VSS.n207 VSS.n194 2306.06
R153 VSS.t0 VSS.n164 2152.43
R154 VSS.n173 VSS.t28 2152.43
R155 VSS.n302 VSS.t30 1874.46
R156 VSS.n332 VSS.t30 1863.35
R157 VSS.n420 VSS.n87 1760.38
R158 VSS.n423 VSS.n87 1760.38
R159 VSS.n201 VSS.n165 1590
R160 VSS.n90 VSS.n83 1477.58
R161 VSS.n196 VSS.n180 1382.33
R162 VSS.n332 VSS.n331 1315.3
R163 VSS.n291 VSS.n290 1306.25
R164 VSS.n160 VSS.n156 1273.43
R165 VSS.t28 VSS.n165 1256.58
R166 VSS.n136 VSS.n98 1052.91
R167 VSS.n289 VSS.n180 910.42
R168 VSS.n323 VSS.n165 895.856
R169 VSS.n351 VSS.n350 823.056
R170 VSS.n324 VSS.n164 761.082
R171 VSS.t2 VSS.n291 678.75
R172 VSS.t32 VSS.n484 647
R173 VSS.n324 VSS.n323 642.163
R174 VSS.t2 VSS.n293 623.75
R175 VSS.n418 VSS.n417 535.436
R176 VSS.n202 VSS.n197 514.71
R177 VSS.n306 VSS.n177 451.89
R178 VSS.n274 VSS.n273 431.83
R179 VSS.n202 VSS.n201 427.839
R180 VSS.n146 VSS.n142 426.541
R181 VSS.n304 VSS.n300 426.505
R182 VSS.n345 VSS.n142 359.279
R183 VSS.n487 VSS.n2 348.882
R184 VSS.n343 VSS.t25 343.591
R185 VSS.n175 VSS.n172 322.786
R186 VSS.n330 VSS.t30 313.719
R187 VSS.n288 VSS.n181 305.168
R188 VSS.n85 VSS.n73 301.67
R189 VSS.n75 VSS.n63 301.67
R190 VSS.n369 VSS.n65 301.67
R191 VSS.n52 VSS.n38 301.67
R192 VSS.n40 VSS.n18 301.67
R193 VSS.n29 VSS.n19 301.67
R194 VSS.n488 VSS.n487 295.498
R195 VSS.n207 VSS.n206 292.5
R196 VSS.t22 VSS.n207 292.5
R197 VSS.n209 VSS.n208 292.5
R198 VSS.n208 VSS.t22 292.5
R199 VSS.n109 VSS.n108 292.5
R200 VSS.t27 VSS.n109 292.5
R201 VSS.n111 VSS.n104 292.5
R202 VSS.n112 VSS.n111 292.5
R203 VSS.n110 VSS.n107 292.5
R204 VSS.t27 VSS.n110 292.5
R205 VSS.n271 VSS.n269 292.5
R206 VSS.n275 VSS.n271 292.5
R207 VSS.n270 VSS.n268 292.5
R208 VSS.n274 VSS.n270 292.5
R209 VSS.n272 VSS.n185 292.5
R210 VSS.t5 VSS.n272 292.5
R211 VSS.n287 VSS.n286 292.5
R212 VSS.n288 VSS.n287 292.5
R213 VSS.n257 VSS.n256 292.5
R214 VSS.n256 VSS.n255 292.5
R215 VSS.n248 VSS.n247 292.5
R216 VSS.n247 VSS.n246 292.5
R217 VSS.n253 VSS.n252 292.5
R218 VSS.n254 VSS.n253 292.5
R219 VSS.n244 VSS.n243 292.5
R220 VSS.n245 VSS.n244 292.5
R221 VSS.n135 VSS.n132 292.5
R222 VSS.t9 VSS.n135 292.5
R223 VSS.n134 VSS.n133 292.5
R224 VSS.t9 VSS.n134 292.5
R225 VSS.n405 VSS.n404 292.5
R226 VSS.n406 VSS.n405 292.5
R227 VSS.n413 VSS.n92 292.5
R228 VSS.n92 VSS.t20 292.5
R229 VSS.n93 VSS.n91 292.5
R230 VSS.n91 VSS.t20 292.5
R231 VSS.n383 VSS.n74 292.5
R232 VSS.t6 VSS.n74 292.5
R233 VSS.n367 VSS.n64 292.5
R234 VSS.t10 VSS.n64 292.5
R235 VSS.n378 VSS.n51 292.5
R236 VSS.t11 VSS.n51 292.5
R237 VSS.n373 VSS.n39 292.5
R238 VSS.t4 VSS.n39 292.5
R239 VSS.n474 VSS.n473 292.5
R240 VSS.n473 VSS.t7 292.5
R241 VSS.n479 VSS.n7 292.5
R242 VSS.n7 VSS.t16 292.5
R243 VSS.n395 VSS.n84 292.5
R244 VSS.t8 VSS.n84 292.5
R245 VSS.n365 VSS.n81 292.5
R246 VSS.t8 VSS.n81 292.5
R247 VSS.n389 VSS.n71 292.5
R248 VSS.t6 VSS.n71 292.5
R249 VSS.n387 VSS.n60 292.5
R250 VSS.t10 VSS.n60 292.5
R251 VSS.n54 VSS.n48 292.5
R252 VSS.t11 VSS.n48 292.5
R253 VSS.n455 VSS.n454 292.5
R254 VSS.n454 VSS.t4 292.5
R255 VSS.n457 VSS.n16 292.5
R256 VSS.t7 VSS.n16 292.5
R257 VSS.n459 VSS.n6 292.5
R258 VSS.n6 VSS.t16 292.5
R259 VSS.n428 VSS.n427 292.5
R260 VSS.n427 VSS.t8 292.5
R261 VSS.n431 VSS.n430 292.5
R262 VSS.t6 VSS.n431 292.5
R263 VSS.n439 VSS.n438 292.5
R264 VSS.n438 VSS.t10 292.5
R265 VSS.n448 VSS.n447 292.5
R266 VSS.t11 VSS.n448 292.5
R267 VSS.n445 VSS.n41 292.5
R268 VSS.t4 VSS.n41 292.5
R269 VSS.n443 VSS.n20 292.5
R270 VSS.t7 VSS.n20 292.5
R271 VSS.n463 VSS.n462 292.5
R272 VSS.n463 VSS.t16 292.5
R273 VSS.n421 VSS.n420 292.5
R274 VSS.t38 VSS.n421 292.5
R275 VSS.n423 VSS.n422 292.5
R276 VSS.n422 VSS.t38 292.5
R277 VSS.n426 VSS.n425 292.5
R278 VSS.t8 VSS.n426 292.5
R279 VSS.n433 VSS.n432 292.5
R280 VSS.n432 VSS.t6 292.5
R281 VSS.n437 VSS.n436 292.5
R282 VSS.t10 VSS.n437 292.5
R283 VSS.n450 VSS.n449 292.5
R284 VSS.n449 VSS.t11 292.5
R285 VSS.n453 VSS.n452 292.5
R286 VSS.t4 VSS.n453 292.5
R287 VSS.n472 VSS.n471 292.5
R288 VSS.t7 VSS.n472 292.5
R289 VSS.n469 VSS.n468 292.5
R290 VSS.n468 VSS.t16 292.5
R291 VSS.n464 VSS.n3 292.5
R292 VSS.t32 VSS.n3 292.5
R293 VSS.n480 VSS.n4 292.5
R294 VSS.n485 VSS.n4 288.712
R295 VSS.n231 VSS.n230 287.026
R296 VSS.n275 VSS.n154 260.13
R297 VSS.n136 VSS.n99 259.06
R298 VSS.n316 VSS.n315 258.839
R299 VSS.n305 VSS.n304 249.601
R300 VSS.n306 VSS.n305 249.601
R301 VSS.n343 VSS.n136 249.587
R302 VSS.n334 VSS.n150 244.138
R303 VSS.n158 VSS.t37 241.245
R304 VSS.n480 VSS.n2 232.353
R305 VSS.n346 VSS.t26 229.185
R306 VSS.n205 VSS.n198 217.103
R307 VSS.n466 VSS.n5 199.749
R308 VSS.n198 VSS.n168 198.024
R309 VSS.n172 VSS.n168 198.024
R310 VSS.n286 VSS.n184 189.365
R311 VSS.n286 VSS.n285 189.365
R312 VSS.n114 VSS.n100 174.674
R313 VSS.t22 VSS.n196 171.571
R314 VSS.t22 VSS.n197 171.571
R315 VSS.n470 VSS.n24 171.476
R316 VSS.n28 VSS.n24 171.476
R317 VSS.n442 VSS.n23 171.476
R318 VSS.n444 VSS.n442 171.476
R319 VSS.n451 VSS.n44 171.476
R320 VSS.n446 VSS.n44 171.476
R321 VSS.n55 VSS.n45 171.476
R322 VSS.n440 VSS.n55 171.476
R323 VSS.n434 VSS.n66 171.476
R324 VSS.n66 VSS.n56 171.476
R325 VSS.n76 VSS.n67 171.476
R326 VSS.n429 VSS.n76 171.476
R327 VSS.n424 VSS.n86 171.476
R328 VSS.n86 VSS.n77 171.476
R329 VSS.t18 VSS.n274 166.637
R330 VSS.t18 VSS.n275 166.637
R331 VSS.n349 VSS.n139 163.012
R332 VSS.n140 VSS.n139 163.012
R333 VSS.n182 VSS.n181 162.441
R334 VSS.n159 VSS.n158 158.845
R335 VSS.n349 VSS.n348 158.72
R336 VSS.n115 VSS.t27 157.766
R337 VSS.n347 VSS.n140 156.988
R338 VSS.n330 VSS.n329 156.124
R339 VSS.t27 VSS.t17 150.99
R340 VSS.n352 VSS.t37 149.911
R341 VSS.t8 VSS.n83 146.865
R342 VSS.t8 VSS.n85 146.865
R343 VSS.t6 VSS.n73 146.865
R344 VSS.t6 VSS.n75 146.865
R345 VSS.t10 VSS.n63 146.865
R346 VSS.t10 VSS.n65 146.865
R347 VSS.t11 VSS.n52 146.865
R348 VSS.t4 VSS.n38 146.865
R349 VSS.t4 VSS.n40 146.865
R350 VSS.t7 VSS.n18 146.865
R351 VSS.t7 VSS.n19 146.865
R352 VSS.n29 VSS.t16 146.865
R353 VSS.n484 VSS.t16 146.865
R354 VSS.n243 VSS.n234 146.505
R355 VSS.n350 VSS.n349 146.25
R356 VSS.n146 VSS.n145 146.25
R357 VSS.n159 VSS.n145 146.25
R358 VSS.n157 VSS.n140 146.25
R359 VSS.n158 VSS.n157 146.25
R360 VSS.n345 VSS.n344 146.25
R361 VSS.n344 VSS.n343 146.25
R362 VSS.n316 VSS.n177 140.8
R363 VSS.n414 VSS.n93 134.489
R364 VSS.n276 VSS.n268 134.489
R365 VSS.n276 VSS.n269 132.659
R366 VSS.n255 VSS.t35 130.689
R367 VSS.n414 VSS.n413 129.781
R368 VSS.n252 VSS.n234 129.781
R369 VSS.n201 VSS.t0 127.005
R370 VSS.n300 VSS.n150 126.721
R371 VSS.n249 VSS.n248 125.746
R372 VSS.n108 VSS.n95 125.365
R373 VSS.n419 VSS.n80 120.484
R374 VSS.n82 VSS.n70 120.484
R375 VSS.n72 VSS.n59 120.484
R376 VSS.n62 VSS.n61 120.484
R377 VSS.n49 VSS.n36 120.484
R378 VSS.n37 VSS.n15 120.484
R379 VSS.n26 VSS.n17 120.484
R380 VSS.n488 VSS.n1 118.416
R381 VSS.n396 VSS.n363 117.379
R382 VSS.n194 VSS.n193 117.001
R383 VSS.n196 VSS.n194 117.001
R384 VSS.n195 VSS.n191 117.001
R385 VSS.n197 VSS.n195 117.001
R386 VSS.n279 VSS.n278 117.001
R387 VSS.n278 VSS.t18 117.001
R388 VSS.n277 VSS.n276 117.001
R389 VSS.t18 VSS.n277 117.001
R390 VSS.n237 VSS.n233 117.001
R391 VSS.n233 VSS.t35 117.001
R392 VSS.n234 VSS.n232 117.001
R393 VSS.n232 VSS.t35 117.001
R394 VSS.n348 VSS.n138 117.001
R395 VSS.n138 VSS.t37 117.001
R396 VSS.n139 VSS.n137 117.001
R397 VSS.n137 VSS.t37 117.001
R398 VSS.n415 VSS.n414 117.001
R399 VSS.n416 VSS.n415 117.001
R400 VSS.n410 VSS.n409 117.001
R401 VSS.n409 VSS.n408 117.001
R402 VSS.n420 VSS.n77 112.942
R403 VSS.n428 VSS.n77 112.942
R404 VSS.n429 VSS.n428 112.942
R405 VSS.n430 VSS.n429 112.942
R406 VSS.n430 VSS.n56 112.942
R407 VSS.n439 VSS.n56 112.942
R408 VSS.n440 VSS.n439 112.942
R409 VSS.n447 VSS.n446 112.942
R410 VSS.n446 VSS.n445 112.942
R411 VSS.n445 VSS.n444 112.942
R412 VSS.n444 VSS.n443 112.942
R413 VSS.n443 VSS.n28 112.942
R414 VSS.n462 VSS.n28 112.942
R415 VSS.n424 VSS.n423 112.942
R416 VSS.n425 VSS.n424 112.942
R417 VSS.n425 VSS.n67 112.942
R418 VSS.n433 VSS.n67 112.942
R419 VSS.n434 VSS.n433 112.942
R420 VSS.n436 VSS.n434 112.942
R421 VSS.n450 VSS.n45 112.942
R422 VSS.n451 VSS.n450 112.942
R423 VSS.n452 VSS.n451 112.942
R424 VSS.n452 VSS.n23 112.942
R425 VSS.n471 VSS.n23 112.942
R426 VSS.n471 VSS.n470 112.942
R427 VSS.n470 VSS.n469 112.942
R428 VSS.n365 VSS.n363 112.93
R429 VSS.n436 VSS.n435 111.436
R430 VSS.n246 VSS.n245 111.112
R431 VSS.n160 VSS.n159 108.213
R432 VSS.n273 VSS.t5 105.689
R433 VSS.n31 VSS.n10 97.4396
R434 VSS.n32 VSS.n12 97.4396
R435 VSS.n372 VSS.n371 97.4396
R436 VSS.n386 VSS.n384 97.4396
R437 VSS.n394 VSS.n393 97.4396
R438 VSS.n377 VSS.n376 96.8664
R439 VSS.n458 VSS.n31 95.7354
R440 VSS.n456 VSS.n32 95.7354
R441 VSS.n371 VSS.n53 95.7354
R442 VSS.n388 VSS.n386 95.7354
R443 VSS.n393 VSS.n390 95.7354
R444 VSS.n376 VSS.n33 95.1723
R445 VSS.n435 VSS.n25 94.352
R446 VSS.n230 VSS.t9 92.5902
R447 VSS.n353 VSS.t9 92.5902
R448 VSS.n406 VSS.n100 91.531
R449 VSS.n461 VSS.n1 87.3879
R450 VSS.n189 VSS.t23 86.7387
R451 VSS.n267 VSS.t19 83.7422
R452 VSS.n121 VSS.t21 83.7278
R453 VSS.n240 VSS.t36 83.7278
R454 VSS.n254 VSS.n231 83.5643
R455 VSS.n404 VSS.n103 82.1622
R456 VSS.n225 VSS.n133 82.1622
R457 VSS.n285 VSS 80.0087
R458 VSS.n245 VSS.t24 77.7783
R459 VSS.n404 VSS.n403 76.5461
R460 VSS.n355 VSS.n133 76.5461
R461 VSS.n114 VSS.n113 76.3709
R462 VSS.n248 VSS.n236 76.3348
R463 VSS.n317 VSS.n176 76.1229
R464 VSS.n305 VSS.n294 75.9791
R465 VSS.n299 VSS.n151 75.6884
R466 VSS.n117 VSS.n108 73.7887
R467 VSS.n204 VSS.n203 73.1255
R468 VSS.n203 VSS.n202 73.1255
R469 VSS.n321 VSS.n169 73.1255
R470 VSS.n169 VSS.n164 73.1255
R471 VSS.n322 VSS.n321 73.1255
R472 VSS.n323 VSS.n322 73.1255
R473 VSS.n175 VSS.n174 73.1255
R474 VSS.n174 VSS.n173 73.1255
R475 VSS.n117 VSS.n116 73.1255
R476 VSS.n116 VSS.n115 73.1255
R477 VSS.n403 VSS.n102 73.1255
R478 VSS.t17 VSS.n102 73.1255
R479 VSS.n103 VSS.n101 73.1255
R480 VSS.t17 VSS.n101 73.1255
R481 VSS.n113 VSS.n95 73.1255
R482 VSS.n285 VSS.n183 73.1255
R483 VSS.n273 VSS.n183 73.1255
R484 VSS.n184 VSS.n182 73.1255
R485 VSS.n294 VSS.n179 73.1255
R486 VSS.n292 VSS.n179 73.1255
R487 VSS.n178 VSS.n177 73.1255
R488 VSS.n291 VSS.n178 73.1255
R489 VSS.n153 VSS.n151 73.1255
R490 VSS.n236 VSS.n228 73.1255
R491 VSS.t24 VSS.n228 73.1255
R492 VSS.n249 VSS.n227 73.1255
R493 VSS.t24 VSS.n227 73.1255
R494 VSS.n355 VSS.n354 73.1255
R495 VSS.n354 VSS.n353 73.1255
R496 VSS.n229 VSS.n225 73.1255
R497 VSS.n230 VSS.n229 73.1255
R498 VSS.n300 VSS.n152 73.1255
R499 VSS.n161 VSS.n152 73.1255
R500 VSS.n147 VSS.n146 71.5299
R501 VSS.n289 VSS.n288 65.232
R502 VSS.n408 VSS.n407 64.8941
R503 VSS.n351 VSS.t25 63.4558
R504 VSS.n329 VSS.n161 62.5456
R505 VSS.n220 VSS.n184 62.3981
R506 VSS.n486 VSS.n485 62.305
R507 VSS.n465 VSS.n25 61.8241
R508 VSS.n447 VSS.n441 61.7417
R509 VSS.n482 VSS.n481 61.2169
R510 VSS.n407 VSS.n406 59.6587
R511 VSS.t38 VSS.n418 58.6566
R512 VSS.t38 VSS.n419 58.6566
R513 VSS.t8 VSS.n80 58.6566
R514 VSS.t8 VSS.n82 58.6566
R515 VSS.t6 VSS.n70 58.6566
R516 VSS.t6 VSS.n72 58.6566
R517 VSS.t10 VSS.n59 58.6566
R518 VSS.t10 VSS.n62 58.6566
R519 VSS.t11 VSS.n49 58.6566
R520 VSS.t4 VSS.n36 58.6566
R521 VSS.t4 VSS.n37 58.6566
R522 VSS.t7 VSS.n15 58.6566
R523 VSS.t7 VSS.n17 58.6566
R524 VSS.n26 VSS.t16 58.6566
R525 VSS.n466 VSS.t16 58.6566
R526 VSS.t32 VSS.n5 58.6566
R527 VSS.t24 VSS.t35 58.2016
R528 VSS.n408 VSS.t20 56.0289
R529 VSS.n416 VSS.t20 56.0289
R530 VSS.n293 VSS.n292 55.0005
R531 VSS.n206 VSS.n192 54.9719
R532 VSS.n150 VSS.n147 53.3135
R533 VSS.n441 VSS.n440 51.2005
R534 VSS.n462 VSS.n461 49.3181
R535 VSS.n469 VSS.n25 49.3181
R536 VSS.n369 VSS.n50 48.6248
R537 VSS.n482 VSS.n9 47.5841
R538 VSS.n333 VSS.n332 46.3872
R539 VSS.n280 VSS.n268 43.5902
R540 VSS.n199 VSS.n198 41.7862
R541 VSS.t0 VSS.n199 41.7862
R542 VSS.n172 VSS.n166 41.7862
R543 VSS.t28 VSS.n166 41.7862
R544 VSS.n200 VSS.n170 41.7862
R545 VSS.t0 VSS.n200 41.7862
R546 VSS.n319 VSS.n167 41.7862
R547 VSS.t28 VSS.n167 41.7862
R548 VSS.n309 VSS.n308 41.7862
R549 VSS.n308 VSS.t2 41.7862
R550 VSS.n307 VSS.n306 41.7862
R551 VSS.t2 VSS.n307 41.7862
R552 VSS.n334 VSS.n333 41.7862
R553 VSS.n304 VSS.n303 41.7862
R554 VSS.n303 VSS.n302 41.7862
R555 VSS.n188 VSS.t1 41.7156
R556 VSS.n295 VSS.t3 41.4575
R557 VSS.n297 VSS.t31 41.4563
R558 VSS.n311 VSS.t29 41.4498
R559 VSS.n279 VSS.n269 39.8737
R560 VSS.n213 VSS.n190 39.1319
R561 VSS.n213 VSS.n191 38.7101
R562 VSS.n246 VSS.n154 38.6075
R563 VSS.n210 VSS.n193 37.7441
R564 VSS.n352 VSS.n351 37.2102
R565 VSS.n115 VSS.n112 36.7801
R566 VSS.n290 VSS.n165 36.2505
R567 VSS.n298 VSS.n149 34.0553
R568 VSS.n210 VSS.n209 32.9148
R569 VSS.n242 VSS.n241 32.377
R570 VSS.n242 VSS.n235 30.1719
R571 VSS.n353 VSS.n352 30.1064
R572 VSS.t11 VSS.n50 28.0386
R573 VSS.n305 VSS.n299 26.3819
R574 VSS.n417 VSS.n416 25.1778
R575 VSS.n342 VSS.n341 23.4005
R576 VSS.n342 VSS.t25 23.4005
R577 VSS.n144 VSS.n142 23.4005
R578 VSS.n144 VSS.t25 23.4005
R579 VSS.n176 VSS.n175 21.7605
R580 VSS.n211 VSS.n192 19.81
R581 VSS.n61 VSS.n50 19.4204
R582 VSS.n264 VSS.n222 18.5973
R583 VSS.n403 VSS 17.8552
R584 VSS VSS.n355 17.8552
R585 VSS.n220 VSS.n185 17.4457
R586 VSS.n481 VSS.n480 16.8875
R587 VSS.n309 VSS.n149 16.6656
R588 VSS.n413 VSS.n412 16.5348
R589 VSS.n206 VSS.n205 16.4078
R590 VSS.n96 VSS.n93 16.4078
R591 VSS.n335 VSS.n149 16.3973
R592 VSS.n460 VSS.n9 16.2503
R593 VSS.n481 VSS.n479 15.2441
R594 VSS.n474 VSS.n12 15.2441
R595 VSS.n373 VSS.n12 15.2441
R596 VSS.n378 VSS.n377 15.2441
R597 VSS.n372 VSS.n367 15.2441
R598 VSS.n384 VSS.n383 15.2441
R599 VSS.n395 VSS.n394 15.2441
R600 VSS.n478 VSS.n10 14.7787
R601 VSS.n384 VSS.n382 14.7787
R602 VSS.n394 VSS.n364 14.7787
R603 VSS.n475 VSS.n10 14.546
R604 VSS.n377 VSS.n374 14.546
R605 VSS.n112 VSS.n99 14.5188
R606 VSS.n118 VSS.n107 14.2116
R607 VSS.n379 VSS.n372 13.615
R608 VSS.n118 VSS.n117 13.4459
R609 VSS.n243 VSS.n242 13.1205
R610 VSS.n54 VSS.n33 12.4289
R611 VSS.n390 VSS.n365 12.3876
R612 VSS.n390 VSS.n389 12.3876
R613 VSS.n389 VSS.n388 12.3876
R614 VSS.n388 VSS.n387 12.3876
R615 VSS.n387 VSS.n53 12.3876
R616 VSS.n456 VSS.n455 12.3876
R617 VSS.n457 VSS.n456 12.3876
R618 VSS.n458 VSS.n457 12.3876
R619 VSS.n459 VSS.n458 12.3876
R620 VSS.n455 VSS.n33 12.3463
R621 VSS.n411 VSS.n96 11.8862
R622 VSS.n465 VSS.n464 11.6307
R623 VSS.n128 VSS.n106 11.6134
R624 VSS.n260 VSS.n224 11.6134
R625 VSS.n321 VSS.n168 11.5469
R626 VSS.n321 VSS.n320 11.217
R627 VSS.n236 VSS.n222 10.7568
R628 VSS.n252 VSS.n251 10.4904
R629 VSS.n315 VSS.n310 10.4191
R630 VSS.n345 VSS.n143 10.2128
R631 VSS.n292 VSS.n154 10.0005
R632 VSS.n193 VSS.n192 9.84665
R633 VSS.n120 VSS.n118 9.41534
R634 VSS.n261 VSS.n260 9.39185
R635 VSS.n212 VSS.n211 9.37653
R636 VSS.n346 VSS.n345 9.3005
R637 VSS.n221 VSS.n220 9.3005
R638 VSS.n129 VSS.n128 9.3005
R639 VSS.n412 VSS.n94 9.06717
R640 VSS.n386 VSS.n366 8.0142
R641 VSS.n366 VSS.n75 8.0142
R642 VSS.n371 VSS.n368 8.0142
R643 VSS.n368 VSS.n65 8.0142
R644 VSS.n386 VSS.n385 8.0142
R645 VSS.n385 VSS.n63 8.0142
R646 VSS.n376 VSS.n375 8.0142
R647 VSS.n375 VSS.n52 8.0142
R648 VSS.n371 VSS.n370 8.0142
R649 VSS.n370 VSS.n369 8.0142
R650 VSS.n35 VSS.n32 8.0142
R651 VSS.n40 VSS.n35 8.0142
R652 VSS.n376 VSS.n34 8.0142
R653 VSS.n38 VSS.n34 8.0142
R654 VSS.n31 VSS.n14 8.0142
R655 VSS.n19 VSS.n14 8.0142
R656 VSS.n32 VSS.n13 8.0142
R657 VSS.n18 VSS.n13 8.0142
R658 VSS.n31 VSS.n30 8.0142
R659 VSS.n30 VSS.n29 8.0142
R660 VSS.n393 VSS.n391 8.0142
R661 VSS.n391 VSS.n85 8.0142
R662 VSS.n393 VSS.n392 8.0142
R663 VSS.n392 VSS.n73 8.0142
R664 VSS.n363 VSS.n362 8.0142
R665 VSS.n362 VSS.n83 8.0142
R666 VSS.n483 VSS.n482 8.0142
R667 VSS.n484 VSS.n483 8.0142
R668 VSS.n340 VSS.n143 7.99658
R669 VSS.n412 VSS.n95 7.60521
R670 VSS.t5 VSS.n181 7.50192
R671 VSS.n128 VSS.n127 7.48437
R672 VSS.n260 VSS.n259 7.48437
R673 VSS.n341 VSS.n147 7.45136
R674 VSS.n489 VSS.n0 7.30675
R675 VSS.n211 VSS.n210 7.13193
R676 VSS.n106 VSS.n104 6.92198
R677 VSS.n224 VSS.n132 6.92198
R678 VSS.n441 VSS.n54 6.77211
R679 VSS.n347 VSS.n346 6.74718
R680 VSS.n205 VSS.n204 6.4257
R681 VSS.n412 VSS.n411 6.4005
R682 VSS.n320 VSS.n170 6.18574
R683 VSS.n320 VSS.n319 6.18574
R684 VSS VSS.n489 5.91834
R685 VSS.n441 VSS.n53 5.61598
R686 VSS VSS.n284 5.45235
R687 VSS VSS.n402 5.45235
R688 VSS.n356 VSS 5.45235
R689 VSS.n127 VSS.n103 5.41985
R690 VSS.n259 VSS.n225 5.41985
R691 VSS.n460 VSS.n459 5.40953
R692 VSS.n255 VSS.n254 5.29151
R693 VSS.n161 VSS.n160 4.9644
R694 VSS VSS.n222 4.92986
R695 VSS.n214 VSS.n213 4.90573
R696 VSS.n318 VSS.n317 4.59111
R697 VSS.n89 VSS.n86 4.46615
R698 VSS.n419 VSS.n89 4.46615
R699 VSS.n79 VSS.n76 4.46615
R700 VSS.n82 VSS.n79 4.46615
R701 VSS.n86 VSS.n78 4.46615
R702 VSS.n80 VSS.n78 4.46615
R703 VSS.n69 VSS.n66 4.46615
R704 VSS.n72 VSS.n69 4.46615
R705 VSS.n76 VSS.n68 4.46615
R706 VSS.n70 VSS.n68 4.46615
R707 VSS.n58 VSS.n55 4.46615
R708 VSS.n62 VSS.n58 4.46615
R709 VSS.n66 VSS.n57 4.46615
R710 VSS.n59 VSS.n57 4.46615
R711 VSS.n47 VSS.n44 4.46615
R712 VSS.n49 VSS.n47 4.46615
R713 VSS.n55 VSS.n46 4.46615
R714 VSS.n61 VSS.n46 4.46615
R715 VSS.n442 VSS.n43 4.46615
R716 VSS.n43 VSS.n37 4.46615
R717 VSS.n44 VSS.n42 4.46615
R718 VSS.n42 VSS.n36 4.46615
R719 VSS.n24 VSS.n22 4.46615
R720 VSS.n22 VSS.n17 4.46615
R721 VSS.n442 VSS.n21 4.46615
R722 VSS.n21 VSS.n15 4.46615
R723 VSS.n27 VSS.n24 4.46615
R724 VSS.n27 VSS.n26 4.46615
R725 VSS.n88 VSS.n87 4.46615
R726 VSS.n418 VSS.n88 4.46615
R727 VSS.n467 VSS.n465 4.46615
R728 VSS.n467 VSS.n466 4.46615
R729 VSS.n9 VSS.n8 4.46615
R730 VSS.n8 VSS.n5 4.46615
R731 VSS.n487 VSS.n486 4.46615
R732 VSS.n251 VSS.n250 4.44728
R733 VSS.n298 VSS.n294 4.36414
R734 VSS.n259 VSS.n226 4.35795
R735 VSS.n461 VSS.n460 4.09269
R736 VSS.n398 VSS.n397 3.87676
R737 VSS.n250 VSS.n249 3.8405
R738 VSS VSS.n94 3.37828
R739 VSS.n215 VSS.n170 3.29929
R740 VSS.t17 VSS.n114 3.10271
R741 VSS.n298 VSS.n295 3.1005
R742 VSS.n298 VSS.n297 3.1005
R743 VSS.n250 VSS.n226 2.86007
R744 VSS.n284 VSS.n283 2.3255
R745 VSS.n125 VSS.n124 2.3255
R746 VSS.n402 VSS.n401 2.3255
R747 VSS.n357 VSS.n356 2.3255
R748 VSS.n258 VSS.n223 2.3255
R749 VSS.n126 VSS 2.31161
R750 VSS.n257 VSS 2.28816
R751 VSS.n251 VSS.n235 2.13383
R752 VSS.n190 VSS.n189 1.89317
R753 VSS.n121 VSS.n97 1.86348
R754 VSS.n241 VSS.n240 1.86348
R755 VSS.n311 VSS.n176 1.8605
R756 VSS.n214 VSS.n188 1.8605
R757 VSS.n364 VSS.n361 1.8605
R758 VSS.n382 VSS.n381 1.8605
R759 VSS.n380 VSS.n379 1.8605
R760 VSS.n374 VSS.n11 1.8605
R761 VSS.n476 VSS.n475 1.8605
R762 VSS.n478 VSS.n477 1.8605
R763 VSS.n281 VSS.n280 1.8605
R764 VSS.n397 VSS.n396 1.8605
R765 VSS.n317 VSS.n316 1.85321
R766 VSS.n126 VSS.n125 1.77828
R767 VSS.n213 VSS.n212 1.66708
R768 VSS.n398 VSS.n360 1.64434
R769 VSS.n379 VSS.n378 1.62959
R770 VSS.n127 VSS.n126 1.61889
R771 VSS.n435 VSS.n45 1.50638
R772 VSS.n299 VSS.n298 1.46981
R773 VSS.n259 VSS.n258 1.3622
R774 VSS.n123 VSS.n94 1.32907
R775 VSS.n238 VSS.n226 1.32907
R776 VSS.n348 VSS.n347 1.2805
R777 VSS.n337 VSS 1.2505
R778 VSS.n359 VSS 1.2505
R779 VSS.n186 VSS.t12 1.21428
R780 VSS.t15 VSS.n219 1.21428
R781 VSS.n411 VSS.n410 1.20521
R782 VSS.n237 VSS.n235 1.20521
R783 VSS.n312 VSS.n311 1.06892
R784 VSS.n219 VSS.n186 1.04896
R785 VSS.n204 VSS.n191 1.00837
R786 VSS VSS.n265 0.976194
R787 VSS.n400 VSS.n129 0.971333
R788 VSS.n221 VSS.t15 0.909702
R789 VSS.n477 VSS 0.896681
R790 VSS.n313 VSS.n310 0.845955
R791 VSS.n336 VSS.n335 0.845955
R792 VSS.n475 VSS.n474 0.698682
R793 VSS.n485 VSS.t32 0.673635
R794 VSS.n318 VSS.n171 0.592183
R795 VSS.n340 VSS.n339 0.529939
R796 VSS.n217 VSS.n171 0.520386
R797 VSS.n216 VSS.n215 0.517167
R798 VSS.n143 VSS.n141 0.517167
R799 VSS.n212 VSS.n187 0.517167
R800 VSS.t14 VSS.n218 0.473714
R801 VSS.n479 VSS.n478 0.465955
R802 VSS.n374 VSS.n373 0.465955
R803 VSS.n382 VSS.n367 0.465955
R804 VSS.n383 VSS.n364 0.465955
R805 VSS.n396 VSS.n395 0.465955
R806 VSS.n339 VSS.n336 0.462148
R807 VSS.n280 VSS.n279 0.457643
R808 VSS.n2 VSS.n0 0.436436
R809 VSS.n358 VSS.n130 0.407111
R810 VSS.n346 VSS.n141 0.405672
R811 VSS.n97 VSS.n96 0.376971
R812 VSS.n283 VSS.n282 0.367087
R813 VSS.n399 VSS.n398 0.360165
R814 VSS.n119 VSS.n106 0.321176
R815 VSS.n123 VSS.n122 0.320051
R816 VSS.n262 VSS.n224 0.315718
R817 VSS.n360 VSS.n358 0.296949
R818 VSS.n310 VSS.n309 0.268407
R819 VSS.n335 VSS.n334 0.268407
R820 VSS.n239 VSS.n238 0.263801
R821 VSS.n490 VSS 0.2605
R822 VSS.n339 VSS 0.236295
R823 VSS VSS.n357 0.232471
R824 VSS.n464 VSS.n1 0.231743
R825 VSS.n218 VSS.n217 0.21925
R826 VSS.n399 VSS 0.216846
R827 VSS.n380 VSS.n11 0.212306
R828 VSS.n476 VSS.n11 0.212306
R829 VSS.n397 VSS.n361 0.208833
R830 VSS.n381 VSS.n361 0.208833
R831 VSS.n381 VSS.n380 0.205361
R832 VSS.n477 VSS.n476 0.205361
R833 VSS.n240 VSS.n239 0.197673
R834 VSS.n338 VSS.n141 0.194466
R835 VSS.n341 VSS.n340 0.188758
R836 VSS.n209 VSS.n190 0.183357
R837 VSS.n490 VSS.n0 0.18175
R838 VSS.n263 VSS.n223 0.176839